*CLASS
&ALLOCATION_OBJECT
    1    1
ASSOCIATED
*STATE
NOT_ALLOCATED
    0
*ACTION
ALLOCATE
    0    0
*END_ACTION
*END_STATE
*STATE
&VARIABLE
    0
*ACTION
RELEASE
    0    0
*END_ACTION
*END_STATE
*STATE
NOT_THERE
    1
DEAD_STATE
*END_STATE
*END_CLASS
*OBJECT
&ALLOC
    0    0    0
*STATE
NOT_ALLOCATED
    1
INITIAL_STATE
*ACTION
ALLOCATE
    1    0
STRING
ID
&noval
*BLOCK
  0  0
terminate
&VARIABLE
*END_ACTION
*END_STATE
*STATE
&VARIABLE
    0
*ACTION
RELEASE
    0    0
*BLOCK
  0  0
terminate
NOT_ALLOCATED
*END_ACTION
*END_STATE
*END_OBJECT
*OBJECT
&DOMAIN
    0    0    0
*STATE
READY
    0
*ACTION
DIAG
    1    0
INT
LEVEL
0
*BLOCK
  0  0
terminate
READY
*END_ACTION
*END_STATE
*END_OBJECT
*CLASS
DAQ_FWCHILDMODE_CLASS
    0    0
*STATE
EXCLUDED
    0
*ACTION
INCLUDE
    2    0
STRING
OWNER
""
STRING
EXCLUSIVE
"YES"
*BLOCK
  0  0
if
  1
 ( DAQ::DAQ_FWM IN_STATE DEAD )
    1    0
    1
DAQ::DAQ_FWM
in_state
    1
DEAD
  1  1
if
  2
 ( DAQ::DAQ_FWM NOT_IN_STATE {EXCLUDED, MANUAL} )
    1    0
    1
DAQ::DAQ_FWM
not_in_state
    2
EXCLUDED
MANUAL
  2  1
else
    0    0
  3  1
terminate
INCLUDED
*BLOCK
  1  1
terminate
MANUAL
*BLOCK
  2  1
terminate
EXCLUDED
*BLOCK
  3  1
do
INCLUDE
    2
OWNER
OWNER
EXCLUSIVE
EXCLUSIVE
DAQ::DAQ_FWM
insert
    1
DAQ::DAQ
DAQ_DOMAIN_V2_FWSETSTATES
insert
    1
DAQ::DAQ
DAQ_DOMAIN_V2_FWSETACTIONS
insert
    1
DAQ::DAQ_FWCNM
FWCHILDRENMODE_FWSETSTATES
*END_ACTION
*ACTION
MANUAL
    0    0
*BLOCK
  0  0
do
MANUAL
    0
DAQ::DAQ_FWM
insert
    1
DAQ::DAQ
DAQ_DOMAIN_V2_FWSETSTATES
insert
    0
DAQ::DAQ
DAQ_DOMAIN_V2_FWSETACTIONS
terminate
MANUAL
*END_ACTION
*ACTION
IGNORE
    0    0
*BLOCK
  0  0
do
IGNORE
    0
DAQ::DAQ_FWM
insert
    1
DAQ::DAQ
DAQ_DOMAIN_V2_FWSETACTIONS
insert
    0
DAQ::DAQ
DAQ_DOMAIN_V2_FWSETSTATES
terminate
IGNORED
*END_ACTION
*ACTION
LOCKOUT
    0    0
*BLOCK
  0  0
terminate
LOCKEDOUT
*END_ACTION
*ACTION
EXCLUDE
    1    0
STRING
OWNER
""
*BLOCK
  0  0
do
EXCLUDE
    1
OWNER
OWNER
DAQ::DAQ_FWM
insert
    0
DAQ::DAQ
DAQ_DOMAIN_V2_FWSETSTATES
insert
    0
DAQ::DAQ
DAQ_DOMAIN_V2_FWSETACTIONS
insert
    0
DAQ::DAQ_FWCNM
FWCHILDRENMODE_FWSETSTATES
terminate
EXCLUDED
*END_ACTION
*ACTION
EXCLUDEPERM
    1    0
STRING
OWNER
""
*BLOCK
  0  0
terminate
EXCLUDEDPERM
*END_ACTION
*ACTION
EXCLUDE&LOCKOUT
    1    0
STRING
OWNER
""
*BLOCK
  0  0
terminate
LOCKEDOUT
*END_ACTION
*END_STATE
*STATE
INCLUDED
    0
*WHEN
 ( DAQ::DAQ_FWM IN_STATE EXCLUDED )
    1    0
    1
DAQ::DAQ_FWM
in_state
    1
EXCLUDED
do
EXCLUDE
    0
&THIS_OBJECT
*WHEN
 ( DAQ::DAQ_FWM IN_STATE IGNORED )
    1    0
    1
DAQ::DAQ_FWM
in_state
    1
IGNORED
do
&END_IN_STATE_WHEN1
    0
&THIS_OBJECT
*WHEN
 ( DAQ::DAQ_FWM IN_STATE MANUAL )
    1    0
    1
DAQ::DAQ_FWM
in_state
    1
MANUAL
do
&END_IN_STATE_WHEN2
    0
&THIS_OBJECT
*WHEN
 ( DAQ::DAQ_FWM IN_STATE DEAD )
    1    0
    1
DAQ::DAQ_FWM
in_state
    1
DEAD
do
MANUAL
    0
&THIS_OBJECT
*ACTION
EXCLUDE
    1    0
STRING
OWNER
""
*BLOCK
  0  0
if
  2
 ( DAQ::DAQ_FWM NOT_IN_STATE INCLUDED )
    1    0
    1
DAQ::DAQ_FWM
not_in_state
    1
INCLUDED
  1  1
else
    0    0
  2  1
terminate
EXCLUDED
*BLOCK
  1  1
if
  2
 ( DAQ::DAQ_FWM IN_STATE INMANUAL )
    1    0
    1
DAQ::DAQ_FWM
in_state
    1
INMANUAL
  3  2
else
    0    0
  4  2
*BLOCK
  2  1
do
EXCLUDE
    1
OWNER
OWNER
DAQ::DAQ_FWM
insert
    0
DAQ::DAQ
DAQ_DOMAIN_V2_FWSETSTATES
insert
    0
DAQ::DAQ
DAQ_DOMAIN_V2_FWSETACTIONS
insert
    0
DAQ::DAQ_FWCNM
FWCHILDRENMODE_FWSETSTATES
*BLOCK
  3  2
do
RELEASE
    1
OWNER
OWNER
DAQ::DAQ_FWM
insert
    0
DAQ::DAQ
DAQ_DOMAIN_V2_FWSETSTATES
insert
    0
DAQ::DAQ
DAQ_DOMAIN_V2_FWSETACTIONS
insert
    0
DAQ::DAQ_FWCNM
FWCHILDRENMODE_FWSETSTATES
*BLOCK
  4  2
do
EXCLUDE
    1
OWNER
OWNER
DAQ::DAQ_FWM
insert
    0
DAQ::DAQ
DAQ_DOMAIN_V2_FWSETSTATES
insert
    0
DAQ::DAQ
DAQ_DOMAIN_V2_FWSETACTIONS
insert
    0
DAQ::DAQ_FWCNM
FWCHILDRENMODE_FWSETSTATES
*END_ACTION
*ACTION
MANUAL
    1    0
STRING
OWNER
""
*BLOCK
  0  0
do
MANUAL
    1
OWNER
OWNER
DAQ::DAQ_FWM
insert
    1
DAQ::DAQ
DAQ_DOMAIN_V2_FWSETSTATES
insert
    0
DAQ::DAQ
DAQ_DOMAIN_V2_FWSETACTIONS
terminate
MANUAL
*END_ACTION
*ACTION
IGNORE
    1    0
STRING
OWNER
""
*BLOCK
  0  0
do
IGNORE
    1
OWNER
OWNER
DAQ::DAQ_FWM
insert
    1
DAQ::DAQ
DAQ_DOMAIN_V2_FWSETACTIONS
insert
    0
DAQ::DAQ
DAQ_DOMAIN_V2_FWSETSTATES
terminate
IGNORED
*END_ACTION
*ACTION
EXCLUDEALL
    1    0
STRING
OWNER
""
*BLOCK
  0  0
if
  2
 ( DAQ::DAQ_FWM NOT_IN_STATE {INCLUDED,IGNORED,MANUAL} )
    1    0
    1
DAQ::DAQ_FWM
not_in_state
    3
INCLUDED
IGNORED
MANUAL
  1  1
else
    0    0
  2  1
terminate
EXCLUDED
*BLOCK
  1  1
if
  2
 ( DAQ::DAQ_FWM IN_STATE INMANUAL )
    1    0
    1
DAQ::DAQ_FWM
in_state
    1
INMANUAL
  3  2
else
    0    0
  4  2
*BLOCK
  2  1
do
EXCLUDEALL
    1
OWNER
OWNER
DAQ::DAQ_FWM
insert
    0
DAQ::DAQ
DAQ_DOMAIN_V2_FWSETSTATES
insert
    0
DAQ::DAQ
DAQ_DOMAIN_V2_FWSETACTIONS
insert
    0
DAQ::DAQ_FWCNM
FWCHILDRENMODE_FWSETSTATES
*BLOCK
  3  2
do
RELEASEALL
    1
OWNER
OWNER
DAQ::DAQ_FWM
insert
    0
DAQ::DAQ
DAQ_DOMAIN_V2_FWSETSTATES
insert
    0
DAQ::DAQ
DAQ_DOMAIN_V2_FWSETACTIONS
insert
    0
DAQ::DAQ_FWCNM
FWCHILDRENMODE_FWSETSTATES
*BLOCK
  4  2
terminate
INCLUDED
*END_ACTION
*ACTION
INCLUDE
    2    0
STRING
OWNER
""
STRING
EXCLUSIVE
"YES"
*BLOCK
  0  0
do
INCLUDE
    2
OWNER
OWNER
EXCLUSIVE
EXCLUSIVE
DAQ::DAQ_FWM
insert
    1
DAQ::DAQ
DAQ_DOMAIN_V2_FWSETSTATES
insert
    1
DAQ::DAQ
DAQ_DOMAIN_V2_FWSETACTIONS
insert
    1
DAQ::DAQ_FWCNM
FWCHILDRENMODE_FWSETSTATES
terminate
INCLUDED
*END_ACTION
*ACTION
FREE
    1    0
STRING
OWNER
""
*BLOCK
  0  0
do
FREE
    1
OWNER
OWNER
DAQ::DAQ_FWM
terminate
INCLUDED
*END_ACTION
*ACTION
SETMODE
    2    0
STRING
OWNER
""
STRING
EXCLUSIVE
"YES"
*BLOCK
  0  0
do
SETMODE
    2
OWNER
OWNER
EXCLUSIVE
EXCLUSIVE
DAQ::DAQ_FWM
*END_ACTION
*ACTION
EXCLUDEPERM
    1    0
STRING
OWNER
""
*BLOCK
  0  0
if
  2
 ( DAQ::DAQ_FWM NOT_IN_STATE INCLUDED )
    1    0
    1
DAQ::DAQ_FWM
not_in_state
    1
INCLUDED
  1  1
else
    0    0
  2  1
terminate
EXCLUDEDPERM
*BLOCK
  1  1
if
  2
 ( DAQ::DAQ_FWM IN_STATE INMANUAL )
    1    0
    1
DAQ::DAQ_FWM
in_state
    1
INMANUAL
  3  2
else
    0    0
  4  2
*BLOCK
  2  1
do
EXCLUDE
    1
OWNER
OWNER
DAQ::DAQ_FWM
insert
    0
DAQ::DAQ
DAQ_DOMAIN_V2_FWSETSTATES
insert
    0
DAQ::DAQ
DAQ_DOMAIN_V2_FWSETACTIONS
insert
    0
DAQ::DAQ_FWCNM
FWCHILDRENMODE_FWSETSTATES
*BLOCK
  3  2
do
RELEASE
    1
OWNER
OWNER
DAQ::DAQ_FWM
insert
    0
DAQ::DAQ
DAQ_DOMAIN_V2_FWSETSTATES
insert
    0
DAQ::DAQ
DAQ_DOMAIN_V2_FWSETACTIONS
insert
    0
DAQ::DAQ_FWCNM
FWCHILDRENMODE_FWSETSTATES
*BLOCK
  4  2
terminate
INCLUDED
*END_ACTION
*ACTION
EXCLUDE&LOCKOUT
    1    0
STRING
OWNER
""
*BLOCK
  0  0
if
  2
 ( DAQ::DAQ_FWM NOT_IN_STATE INCLUDED )
    1    0
    1
DAQ::DAQ_FWM
not_in_state
    1
INCLUDED
  1  1
else
    0    0
  2  1
terminate
LOCKEDOUT
*BLOCK
  1  1
if
  2
 ( DAQ::DAQ_FWM IN_STATE INMANUAL )
    1    0
    1
DAQ::DAQ_FWM
in_state
    1
INMANUAL
  3  2
else
    0    0
  4  2
*BLOCK
  2  1
do
EXCLUDE
    1
OWNER
OWNER
DAQ::DAQ_FWM
insert
    0
DAQ::DAQ
DAQ_DOMAIN_V2_FWSETSTATES
insert
    0
DAQ::DAQ
DAQ_DOMAIN_V2_FWSETACTIONS
insert
    0
DAQ::DAQ_FWCNM
FWCHILDRENMODE_FWSETSTATES
*BLOCK
  3  2
do
RELEASE
    1
OWNER
OWNER
DAQ::DAQ_FWM
insert
    0
DAQ::DAQ
DAQ_DOMAIN_V2_FWSETSTATES
insert
    0
DAQ::DAQ
DAQ_DOMAIN_V2_FWSETACTIONS
insert
    0
DAQ::DAQ_FWCNM
FWCHILDRENMODE_FWSETSTATES
*BLOCK
  4  2
if
  2
 ( DAQ::DAQ_FWM IN_STATE DEAD )
    1    0
    1
DAQ::DAQ_FWM
in_state
    1
DEAD
  5  3
else
    0    0
  6  3
*BLOCK
  5  3
do
EXCLUDE
    1
OWNER
OWNER
DAQ::DAQ_FWM
insert
    0
DAQ::DAQ
DAQ_DOMAIN_V2_FWSETSTATES
insert
    0
DAQ::DAQ
DAQ_DOMAIN_V2_FWSETACTIONS
insert
    0
DAQ::DAQ_FWCNM
FWCHILDRENMODE_FWSETSTATES
*BLOCK
  6  3
terminate
INCLUDED
*END_ACTION
*ACTION
&END_IN_STATE_WHEN1
    0    0
*BLOCK
  0  0
terminate
IGNORED
*END_ACTION
*ACTION
&END_IN_STATE_WHEN2
    0    0
*BLOCK
  0  0
terminate
MANUAL
*END_ACTION
*END_STATE
*STATE
MANUAL
    0
*WHEN
 ( DAQ::DAQ_FWM IN_STATE INCLUDED )
    1    0
    1
DAQ::DAQ_FWM
in_state
    1
INCLUDED
do
&END_IN_STATE_WHEN0
    0
&THIS_OBJECT
*ACTION
INCLUDE
    2    0
STRING
OWNER
""
STRING
EXCLUSIVE
"YES"
*BLOCK
  0  0
if
  1
 ( DAQ::DAQ_FWM IN_STATE DEAD )
    1    0
    1
DAQ::DAQ_FWM
in_state
    1
DEAD
  1  1
if
  1
 ( DAQ::DAQ_FWM NOT_IN_STATE INMANUAL )
    1    0
    1
DAQ::DAQ_FWM
not_in_state
    1
INMANUAL
  2  1
if
  1
 ( DAQ::DAQ_FWM IN_STATE INCLUDED )
    1    0
    1
DAQ::DAQ_FWM
in_state
    1
INCLUDED
  3  1
terminate
MANUAL
*BLOCK
  1  1
terminate
MANUAL
*BLOCK
  2  1
do
INCLUDE
    2
OWNER
OWNER
EXCLUSIVE
EXCLUSIVE
DAQ::DAQ_FWM
insert
    1
DAQ::DAQ
DAQ_DOMAIN_V2_FWSETSTATES
insert
    1
DAQ::DAQ
DAQ_DOMAIN_V2_FWSETACTIONS
insert
    1
DAQ::DAQ_FWCNM
FWCHILDRENMODE_FWSETSTATES
*BLOCK
  3  1
terminate
INCLUDED
*END_ACTION
*ACTION
EXCLUDE
    1    0
STRING
OWNER
""
*BLOCK
  0  0
do
EXCLUDE
    1
OWNER
OWNER
DAQ::DAQ_FWM
insert
    0
DAQ::DAQ
DAQ_DOMAIN_V2_FWSETSTATES
insert
    0
DAQ::DAQ
DAQ_DOMAIN_V2_FWSETACTIONS
insert
    0
DAQ::DAQ_FWCNM
FWCHILDRENMODE_FWSETSTATES
if
  1
 ( DAQ::DAQ_FWM IN_STATE INMANUAL )
    1    0
    1
DAQ::DAQ_FWM
in_state
    1
INMANUAL
  1  1
terminate
EXCLUDED
*BLOCK
  1  1
do
SETINLOCAL
    0
DAQ::DAQ_FWM
*END_ACTION
*ACTION
IGNORE
    0    0
*BLOCK
  0  0
do
IGNORE
    0
DAQ::DAQ_FWM
insert
    1
DAQ::DAQ
DAQ_DOMAIN_V2_FWSETACTIONS
insert
    0
DAQ::DAQ
DAQ_DOMAIN_V2_FWSETSTATES
terminate
IGNORED
*END_ACTION
*ACTION
FREE
    1    0
STRING
OWNER
""
*BLOCK
  0  0
do
FREE
    1
OWNER
OWNER
DAQ::DAQ_FWM
if
  1
 ( DAQ::DAQ_FWM IN_STATE INMANUAL )
    1    0
    1
DAQ::DAQ_FWM
in_state
    1
INMANUAL
  1  1
terminate
EXCLUDED
*BLOCK
  1  1
do
SETINLOCAL
    0
DAQ::DAQ_FWM
*END_ACTION
*ACTION
EXCLUDEALL
    1    0
STRING
OWNER
""
*BLOCK
  0  0
do
EXCLUDEALL
    1
OWNER
OWNER
DAQ::DAQ_FWM
insert
    0
DAQ::DAQ
DAQ_DOMAIN_V2_FWSETSTATES
insert
    0
DAQ::DAQ
DAQ_DOMAIN_V2_FWSETACTIONS
insert
    0
DAQ::DAQ_FWCNM
FWCHILDRENMODE_FWSETSTATES
if
  1
 ( DAQ::DAQ_FWM IN_STATE INMANUAL )
    1    0
    1
DAQ::DAQ_FWM
in_state
    1
INMANUAL
  1  1
terminate
EXCLUDED
*BLOCK
  1  1
do
SETINLOCAL
    0
DAQ::DAQ_FWM
*END_ACTION
*ACTION
MANUAL
    0    0
*BLOCK
  0  0
do
MANUAL
    0
DAQ::DAQ_FWM
insert
    1
DAQ::DAQ
DAQ_DOMAIN_V2_FWSETSTATES
insert
    0
DAQ::DAQ
DAQ_DOMAIN_V2_FWSETACTIONS
terminate
MANUAL
*END_ACTION
*ACTION
EXCLUDE&LOCKOUT
    1    0
STRING
OWNER
""
*BLOCK
  0  0
do
EXCLUDE
    1
OWNER
OWNER
DAQ::DAQ_FWM
insert
    0
DAQ::DAQ
DAQ_DOMAIN_V2_FWSETSTATES
insert
    0
DAQ::DAQ
DAQ_DOMAIN_V2_FWSETACTIONS
insert
    0
DAQ::DAQ_FWCNM
FWCHILDRENMODE_FWSETSTATES
if
  1
 ( DAQ::DAQ_FWM IN_STATE INMANUAL )
    1    0
    1
DAQ::DAQ_FWM
in_state
    1
INMANUAL
  1  1
terminate
LOCKEDOUT
*BLOCK
  1  1
do
SETINLOCAL
    0
DAQ::DAQ_FWM
*END_ACTION
*ACTION
&END_IN_STATE_WHEN0
    0    0
*BLOCK
  0  0
terminate
EXCLUDED
*END_ACTION
*END_STATE
*STATE
IGNORED
    0
*WHEN
 ( DAQ::DAQ_FWM IN_STATE INCLUDED )
    1    0
    1
DAQ::DAQ_FWM
in_state
    1
INCLUDED
do
&END_IN_STATE_WHEN0
    0
&THIS_OBJECT
*WHEN
 ( DAQ::DAQ_FWM IN_STATE EXCLUDED )
    1    0
    1
DAQ::DAQ_FWM
in_state
    1
EXCLUDED
do
&END_IN_STATE_WHEN1
    0
&THIS_OBJECT
*WHEN
 ( DAQ::DAQ_FWM IN_STATE DEAD )
    1    0
    1
DAQ::DAQ_FWM
in_state
    1
DEAD
do
EXCLUDE
    0
&THIS_OBJECT
*ACTION
INCLUDE
    2    0
STRING
OWNER
""
STRING
EXCLUSIVE
"YES"
*BLOCK
  0  0
do
INCLUDE
    2
OWNER
OWNER
EXCLUSIVE
EXCLUSIVE
DAQ::DAQ_FWM
insert
    1
DAQ::DAQ
DAQ_DOMAIN_V2_FWSETSTATES
insert
    1
DAQ::DAQ
DAQ_DOMAIN_V2_FWSETACTIONS
insert
    1
DAQ::DAQ_FWCNM
FWCHILDRENMODE_FWSETSTATES
terminate
INCLUDED
*END_ACTION
*ACTION
EXCLUDE
    1    0
STRING
OWNER
""
*BLOCK
  0  0
if
  2
 ( DAQ::DAQ_FWM NOT_IN_STATE INCLUDED )
    1    0
    1
DAQ::DAQ_FWM
not_in_state
    1
INCLUDED
  1  1
else
    0    0
  2  1
terminate
EXCLUDED
*BLOCK
  1  1
if
  2
 ( DAQ::DAQ_FWM IN_STATE INMANUAL )
    1    0
    1
DAQ::DAQ_FWM
in_state
    1
INMANUAL
  3  2
else
    0    0
  4  2
*BLOCK
  2  1
do
EXCLUDE
    1
OWNER
OWNER
DAQ::DAQ_FWM
insert
    0
DAQ::DAQ
DAQ_DOMAIN_V2_FWSETSTATES
insert
    0
DAQ::DAQ
DAQ_DOMAIN_V2_FWSETACTIONS
insert
    0
DAQ::DAQ_FWCNM
FWCHILDRENMODE_FWSETSTATES
*BLOCK
  3  2
do
RELEASE
    1
OWNER
OWNER
DAQ::DAQ_FWM
insert
    0
DAQ::DAQ
DAQ_DOMAIN_V2_FWSETSTATES
insert
    0
DAQ::DAQ
DAQ_DOMAIN_V2_FWSETACTIONS
insert
    0
DAQ::DAQ_FWCNM
FWCHILDRENMODE_FWSETSTATES
*BLOCK
  4  2
do
EXCLUDE
    1
OWNER
OWNER
DAQ::DAQ_FWM
insert
    0
DAQ::DAQ
DAQ_DOMAIN_V2_FWSETSTATES
insert
    0
DAQ::DAQ
DAQ_DOMAIN_V2_FWSETACTIONS
insert
    0
DAQ::DAQ_FWCNM
FWCHILDRENMODE_FWSETSTATES
*END_ACTION
*ACTION
MANUAL
    1    0
STRING
OWNER
""
*BLOCK
  0  0
do
MANUAL
    1
OWNER
OWNER
DAQ::DAQ_FWM
insert
    1
DAQ::DAQ
DAQ_DOMAIN_V2_FWSETSTATES
insert
    0
DAQ::DAQ
DAQ_DOMAIN_V2_FWSETACTIONS
terminate
MANUAL
*END_ACTION
*ACTION
SETMODE
    2    0
STRING
OWNER
""
STRING
EXCLUSIVE
"YES"
*BLOCK
  0  0
do
SETMODE
    2
OWNER
OWNER
EXCLUSIVE
EXCLUSIVE
DAQ::DAQ_FWM
*END_ACTION
*ACTION
FREE
    1    0
STRING
OWNER
""
*BLOCK
  0  0
do
FREE
    1
OWNER
OWNER
DAQ::DAQ_FWM
terminate
INCLUDED
*END_ACTION
*ACTION
EXCLUDEALL
    1    0
STRING
OWNER
""
*BLOCK
  0  0
if
  2
 ( DAQ::DAQ_FWM NOT_IN_STATE {INCLUDED,IGNORED,MANUAL} )
    1    0
    1
DAQ::DAQ_FWM
not_in_state
    3
INCLUDED
IGNORED
MANUAL
  1  1
else
    0    0
  2  1
terminate
EXCLUDED
*BLOCK
  1  1
if
  2
 ( DAQ::DAQ_FWM IN_STATE INMANUAL )
    1    0
    1
DAQ::DAQ_FWM
in_state
    1
INMANUAL
  3  2
else
    0    0
  4  2
*BLOCK
  2  1
do
EXCLUDEALL
    1
OWNER
OWNER
DAQ::DAQ_FWM
insert
    0
DAQ::DAQ
DAQ_DOMAIN_V2_FWSETSTATES
insert
    0
DAQ::DAQ
DAQ_DOMAIN_V2_FWSETACTIONS
insert
    0
DAQ::DAQ_FWCNM
FWCHILDRENMODE_FWSETSTATES
*BLOCK
  3  2
do
RELEASEALL
    1
OWNER
OWNER
DAQ::DAQ_FWM
insert
    0
DAQ::DAQ
DAQ_DOMAIN_V2_FWSETSTATES
insert
    0
DAQ::DAQ
DAQ_DOMAIN_V2_FWSETACTIONS
insert
    0
DAQ::DAQ_FWCNM
FWCHILDRENMODE_FWSETSTATES
*BLOCK
  4  2
terminate
INCLUDED
*END_ACTION
*ACTION
&END_IN_STATE_WHEN0
    0    0
*BLOCK
  0  0
terminate
INCLUDED
*END_ACTION
*ACTION
&END_IN_STATE_WHEN1
    0    0
*BLOCK
  0  0
terminate
EXCLUDED
*END_ACTION
*END_STATE
*STATE
LOCKEDOUT
    0
*ACTION
UNLOCKOUT
    0    0
*BLOCK
  0  0
terminate
EXCLUDED
*END_ACTION
*ACTION
UNLOCKOUT&INCLUDE
    2    0
STRING
OWNER
""
STRING
EXCLUSIVE
"YES"
*BLOCK
  0  0
if
  2
 ( DAQ::DAQ_FWM NOT_IN_STATE EXCLUDED )
    1    0
    1
DAQ::DAQ_FWM
not_in_state
    1
EXCLUDED
  1  1
else
    0    0
  2  1
terminate
INCLUDED
*BLOCK
  1  1
terminate
LOCKEDOUT
*BLOCK
  2  1
do
INCLUDE
    2
OWNER
OWNER
EXCLUSIVE
EXCLUSIVE
DAQ::DAQ_FWM
insert
    1
DAQ::DAQ
DAQ_DOMAIN_V2_FWSETSTATES
insert
    1
DAQ::DAQ
DAQ_DOMAIN_V2_FWSETACTIONS
insert
    1
DAQ::DAQ_FWCNM
FWCHILDRENMODE_FWSETSTATES
*END_ACTION
*ACTION
LOCKOUTPERM
    0    0
*BLOCK
  0  0
terminate
LOCKEDOUTPERM
*END_ACTION
*END_STATE
*STATE
EXCLUDEDPERM
    0
*ACTION
INCLUDE
    2    0
STRING
OWNER
""
STRING
EXCLUSIVE
"YES"
*BLOCK
  0  0
if
  2
 ( DAQ::DAQ_FWM NOT_IN_STATE {EXCLUDED, MANUAL} )
    1    0
    1
DAQ::DAQ_FWM
not_in_state
    2
EXCLUDED
MANUAL
  1  1
else
    0    0
  2  1
terminate
INCLUDED
*BLOCK
  1  1
terminate
EXCLUDEDPERM
*BLOCK
  2  1
do
INCLUDE
    2
OWNER
OWNER
EXCLUSIVE
EXCLUSIVE
DAQ::DAQ_FWM
insert
    1
DAQ::DAQ
DAQ_DOMAIN_V2_FWSETSTATES
insert
    1
DAQ::DAQ
DAQ_DOMAIN_V2_FWSETACTIONS
insert
    1
DAQ::DAQ_FWCNM
FWCHILDRENMODE_FWSETSTATES
*END_ACTION
*ACTION
LOCKOUT
    0    0
*BLOCK
  0  0
terminate
LOCKEDOUT
*END_ACTION
*ACTION
EXCLUDE
    1    0
STRING
OWNER
""
*BLOCK
  0  0
terminate
EXCLUDED
*END_ACTION
*END_STATE
*STATE
LOCKEDOUTPERM
    0
*ACTION
UNLOCKOUT
    0    0
*BLOCK
  0  0
terminate
EXCLUDED
*END_ACTION
*ACTION
UNLOCKOUT&INCLUDE
    2    0
STRING
OWNER
""
STRING
EXCLUSIVE
"YES"
*BLOCK
  0  0
if
  2
 ( DAQ::DAQ_FWM NOT_IN_STATE EXCLUDED )
    1    0
    1
DAQ::DAQ_FWM
not_in_state
    1
EXCLUDED
  1  1
else
    0    0
  2  1
terminate
INCLUDED
*BLOCK
  1  1
terminate
LOCKEDOUTPERM
*BLOCK
  2  1
do
INCLUDE
    2
OWNER
OWNER
EXCLUSIVE
EXCLUSIVE
DAQ::DAQ_FWM
insert
    1
DAQ::DAQ
DAQ_DOMAIN_V2_FWSETSTATES
insert
    1
DAQ::DAQ
DAQ_DOMAIN_V2_FWSETACTIONS
insert
    1
DAQ::DAQ_FWCNM
FWCHILDRENMODE_FWSETSTATES
*END_ACTION
*ACTION
LOCKOUT
    0    0
*BLOCK
  0  0
terminate
LOCKEDOUT
*END_ACTION
*END_STATE
*END_CLASS
*OBJECT
DAQ_FWM
    1    0    0
DAQ_FWCHILDMODE_CLASS
*END_OBJECT
*CLASS
DATAFLOW_FWCHILDMODE_CLASS
    0    0
*STATE
EXCLUDED
    0
*ACTION
INCLUDE
    2    0
STRING
OWNER
""
STRING
EXCLUSIVE
"YES"
*BLOCK
  0  0
if
  1
 ( DATAFLOW::DATAFLOW_FWM IN_STATE DEAD )
    1    0
    1
DATAFLOW::DATAFLOW_FWM
in_state
    1
DEAD
  1  1
if
  2
 ( DATAFLOW::DATAFLOW_FWM NOT_IN_STATE {EXCLUDED, MANUAL} )
    1    0
    1
DATAFLOW::DATAFLOW_FWM
not_in_state
    2
EXCLUDED
MANUAL
  2  1
else
    0    0
  3  1
terminate
INCLUDED
*BLOCK
  1  1
terminate
MANUAL
*BLOCK
  2  1
terminate
EXCLUDED
*BLOCK
  3  1
do
INCLUDE
    2
OWNER
OWNER
EXCLUSIVE
EXCLUSIVE
DATAFLOW::DATAFLOW_FWM
insert
    1
DATAFLOW::DATAFLOW
DATAFLOWTOP_FWSETSTATES
insert
    1
DATAFLOW::DATAFLOW
DATAFLOWTOP_FWSETACTIONS
insert
    1
DATAFLOW::DATAFLOW_FWCNM
FWCHILDRENMODE_FWSETSTATES
*END_ACTION
*ACTION
MANUAL
    0    0
*BLOCK
  0  0
do
MANUAL
    0
DATAFLOW::DATAFLOW_FWM
insert
    1
DATAFLOW::DATAFLOW
DATAFLOWTOP_FWSETSTATES
insert
    0
DATAFLOW::DATAFLOW
DATAFLOWTOP_FWSETACTIONS
terminate
MANUAL
*END_ACTION
*ACTION
IGNORE
    0    0
*BLOCK
  0  0
do
IGNORE
    0
DATAFLOW::DATAFLOW_FWM
insert
    1
DATAFLOW::DATAFLOW
DATAFLOWTOP_FWSETACTIONS
insert
    0
DATAFLOW::DATAFLOW
DATAFLOWTOP_FWSETSTATES
terminate
IGNORED
*END_ACTION
*ACTION
LOCKOUT
    0    0
*BLOCK
  0  0
terminate
LOCKEDOUT
*END_ACTION
*ACTION
EXCLUDE
    1    0
STRING
OWNER
""
*BLOCK
  0  0
do
EXCLUDE
    1
OWNER
OWNER
DATAFLOW::DATAFLOW_FWM
insert
    0
DATAFLOW::DATAFLOW
DATAFLOWTOP_FWSETSTATES
insert
    0
DATAFLOW::DATAFLOW
DATAFLOWTOP_FWSETACTIONS
insert
    0
DATAFLOW::DATAFLOW_FWCNM
FWCHILDRENMODE_FWSETSTATES
terminate
EXCLUDED
*END_ACTION
*ACTION
EXCLUDEPERM
    1    0
STRING
OWNER
""
*BLOCK
  0  0
terminate
EXCLUDEDPERM
*END_ACTION
*ACTION
EXCLUDE&LOCKOUT
    1    0
STRING
OWNER
""
*BLOCK
  0  0
terminate
LOCKEDOUT
*END_ACTION
*END_STATE
*STATE
INCLUDED
    0
*WHEN
 ( DATAFLOW::DATAFLOW_FWM IN_STATE EXCLUDED )
    1    0
    1
DATAFLOW::DATAFLOW_FWM
in_state
    1
EXCLUDED
do
EXCLUDE
    0
&THIS_OBJECT
*WHEN
 ( DATAFLOW::DATAFLOW_FWM IN_STATE IGNORED )
    1    0
    1
DATAFLOW::DATAFLOW_FWM
in_state
    1
IGNORED
do
&END_IN_STATE_WHEN1
    0
&THIS_OBJECT
*WHEN
 ( DATAFLOW::DATAFLOW_FWM IN_STATE MANUAL )
    1    0
    1
DATAFLOW::DATAFLOW_FWM
in_state
    1
MANUAL
do
&END_IN_STATE_WHEN2
    0
&THIS_OBJECT
*WHEN
 ( DATAFLOW::DATAFLOW_FWM IN_STATE DEAD )
    1    0
    1
DATAFLOW::DATAFLOW_FWM
in_state
    1
DEAD
do
MANUAL
    0
&THIS_OBJECT
*ACTION
EXCLUDE
    1    0
STRING
OWNER
""
*BLOCK
  0  0
if
  2
 ( DATAFLOW::DATAFLOW_FWM NOT_IN_STATE INCLUDED )
    1    0
    1
DATAFLOW::DATAFLOW_FWM
not_in_state
    1
INCLUDED
  1  1
else
    0    0
  2  1
terminate
EXCLUDED
*BLOCK
  1  1
if
  2
 ( DATAFLOW::DATAFLOW_FWM IN_STATE INMANUAL )
    1    0
    1
DATAFLOW::DATAFLOW_FWM
in_state
    1
INMANUAL
  3  2
else
    0    0
  4  2
*BLOCK
  2  1
do
EXCLUDE
    1
OWNER
OWNER
DATAFLOW::DATAFLOW_FWM
insert
    0
DATAFLOW::DATAFLOW
DATAFLOWTOP_FWSETSTATES
insert
    0
DATAFLOW::DATAFLOW
DATAFLOWTOP_FWSETACTIONS
insert
    0
DATAFLOW::DATAFLOW_FWCNM
FWCHILDRENMODE_FWSETSTATES
*BLOCK
  3  2
do
RELEASE
    1
OWNER
OWNER
DATAFLOW::DATAFLOW_FWM
insert
    0
DATAFLOW::DATAFLOW
DATAFLOWTOP_FWSETSTATES
insert
    0
DATAFLOW::DATAFLOW
DATAFLOWTOP_FWSETACTIONS
insert
    0
DATAFLOW::DATAFLOW_FWCNM
FWCHILDRENMODE_FWSETSTATES
*BLOCK
  4  2
do
EXCLUDE
    1
OWNER
OWNER
DATAFLOW::DATAFLOW_FWM
insert
    0
DATAFLOW::DATAFLOW
DATAFLOWTOP_FWSETSTATES
insert
    0
DATAFLOW::DATAFLOW
DATAFLOWTOP_FWSETACTIONS
insert
    0
DATAFLOW::DATAFLOW_FWCNM
FWCHILDRENMODE_FWSETSTATES
*END_ACTION
*ACTION
MANUAL
    1    0
STRING
OWNER
""
*BLOCK
  0  0
do
MANUAL
    1
OWNER
OWNER
DATAFLOW::DATAFLOW_FWM
insert
    1
DATAFLOW::DATAFLOW
DATAFLOWTOP_FWSETSTATES
insert
    0
DATAFLOW::DATAFLOW
DATAFLOWTOP_FWSETACTIONS
terminate
MANUAL
*END_ACTION
*ACTION
IGNORE
    1    0
STRING
OWNER
""
*BLOCK
  0  0
do
IGNORE
    1
OWNER
OWNER
DATAFLOW::DATAFLOW_FWM
insert
    1
DATAFLOW::DATAFLOW
DATAFLOWTOP_FWSETACTIONS
insert
    0
DATAFLOW::DATAFLOW
DATAFLOWTOP_FWSETSTATES
terminate
IGNORED
*END_ACTION
*ACTION
EXCLUDEALL
    1    0
STRING
OWNER
""
*BLOCK
  0  0
if
  2
 ( DATAFLOW::DATAFLOW_FWM NOT_IN_STATE {INCLUDED,IGNORED,MANUAL} )
    1    0
    1
DATAFLOW::DATAFLOW_FWM
not_in_state
    3
INCLUDED
IGNORED
MANUAL
  1  1
else
    0    0
  2  1
terminate
EXCLUDED
*BLOCK
  1  1
if
  2
 ( DATAFLOW::DATAFLOW_FWM IN_STATE INMANUAL )
    1    0
    1
DATAFLOW::DATAFLOW_FWM
in_state
    1
INMANUAL
  3  2
else
    0    0
  4  2
*BLOCK
  2  1
do
EXCLUDEALL
    1
OWNER
OWNER
DATAFLOW::DATAFLOW_FWM
insert
    0
DATAFLOW::DATAFLOW
DATAFLOWTOP_FWSETSTATES
insert
    0
DATAFLOW::DATAFLOW
DATAFLOWTOP_FWSETACTIONS
insert
    0
DATAFLOW::DATAFLOW_FWCNM
FWCHILDRENMODE_FWSETSTATES
*BLOCK
  3  2
do
RELEASEALL
    1
OWNER
OWNER
DATAFLOW::DATAFLOW_FWM
insert
    0
DATAFLOW::DATAFLOW
DATAFLOWTOP_FWSETSTATES
insert
    0
DATAFLOW::DATAFLOW
DATAFLOWTOP_FWSETACTIONS
insert
    0
DATAFLOW::DATAFLOW_FWCNM
FWCHILDRENMODE_FWSETSTATES
*BLOCK
  4  2
terminate
INCLUDED
*END_ACTION
*ACTION
INCLUDE
    2    0
STRING
OWNER
""
STRING
EXCLUSIVE
"YES"
*BLOCK
  0  0
do
INCLUDE
    2
OWNER
OWNER
EXCLUSIVE
EXCLUSIVE
DATAFLOW::DATAFLOW_FWM
insert
    1
DATAFLOW::DATAFLOW
DATAFLOWTOP_FWSETSTATES
insert
    1
DATAFLOW::DATAFLOW
DATAFLOWTOP_FWSETACTIONS
insert
    1
DATAFLOW::DATAFLOW_FWCNM
FWCHILDRENMODE_FWSETSTATES
terminate
INCLUDED
*END_ACTION
*ACTION
FREE
    1    0
STRING
OWNER
""
*BLOCK
  0  0
do
FREE
    1
OWNER
OWNER
DATAFLOW::DATAFLOW_FWM
terminate
INCLUDED
*END_ACTION
*ACTION
SETMODE
    2    0
STRING
OWNER
""
STRING
EXCLUSIVE
"YES"
*BLOCK
  0  0
do
SETMODE
    2
OWNER
OWNER
EXCLUSIVE
EXCLUSIVE
DATAFLOW::DATAFLOW_FWM
*END_ACTION
*ACTION
EXCLUDEPERM
    1    0
STRING
OWNER
""
*BLOCK
  0  0
if
  2
 ( DATAFLOW::DATAFLOW_FWM NOT_IN_STATE INCLUDED )
    1    0
    1
DATAFLOW::DATAFLOW_FWM
not_in_state
    1
INCLUDED
  1  1
else
    0    0
  2  1
terminate
EXCLUDEDPERM
*BLOCK
  1  1
if
  2
 ( DATAFLOW::DATAFLOW_FWM IN_STATE INMANUAL )
    1    0
    1
DATAFLOW::DATAFLOW_FWM
in_state
    1
INMANUAL
  3  2
else
    0    0
  4  2
*BLOCK
  2  1
do
EXCLUDE
    1
OWNER
OWNER
DATAFLOW::DATAFLOW_FWM
insert
    0
DATAFLOW::DATAFLOW
DATAFLOWTOP_FWSETSTATES
insert
    0
DATAFLOW::DATAFLOW
DATAFLOWTOP_FWSETACTIONS
insert
    0
DATAFLOW::DATAFLOW_FWCNM
FWCHILDRENMODE_FWSETSTATES
*BLOCK
  3  2
do
RELEASE
    1
OWNER
OWNER
DATAFLOW::DATAFLOW_FWM
insert
    0
DATAFLOW::DATAFLOW
DATAFLOWTOP_FWSETSTATES
insert
    0
DATAFLOW::DATAFLOW
DATAFLOWTOP_FWSETACTIONS
insert
    0
DATAFLOW::DATAFLOW_FWCNM
FWCHILDRENMODE_FWSETSTATES
*BLOCK
  4  2
terminate
INCLUDED
*END_ACTION
*ACTION
EXCLUDE&LOCKOUT
    1    0
STRING
OWNER
""
*BLOCK
  0  0
if
  2
 ( DATAFLOW::DATAFLOW_FWM NOT_IN_STATE INCLUDED )
    1    0
    1
DATAFLOW::DATAFLOW_FWM
not_in_state
    1
INCLUDED
  1  1
else
    0    0
  2  1
terminate
LOCKEDOUT
*BLOCK
  1  1
if
  2
 ( DATAFLOW::DATAFLOW_FWM IN_STATE INMANUAL )
    1    0
    1
DATAFLOW::DATAFLOW_FWM
in_state
    1
INMANUAL
  3  2
else
    0    0
  4  2
*BLOCK
  2  1
do
EXCLUDE
    1
OWNER
OWNER
DATAFLOW::DATAFLOW_FWM
insert
    0
DATAFLOW::DATAFLOW
DATAFLOWTOP_FWSETSTATES
insert
    0
DATAFLOW::DATAFLOW
DATAFLOWTOP_FWSETACTIONS
insert
    0
DATAFLOW::DATAFLOW_FWCNM
FWCHILDRENMODE_FWSETSTATES
*BLOCK
  3  2
do
RELEASE
    1
OWNER
OWNER
DATAFLOW::DATAFLOW_FWM
insert
    0
DATAFLOW::DATAFLOW
DATAFLOWTOP_FWSETSTATES
insert
    0
DATAFLOW::DATAFLOW
DATAFLOWTOP_FWSETACTIONS
insert
    0
DATAFLOW::DATAFLOW_FWCNM
FWCHILDRENMODE_FWSETSTATES
*BLOCK
  4  2
if
  2
 ( DATAFLOW::DATAFLOW_FWM IN_STATE DEAD )
    1    0
    1
DATAFLOW::DATAFLOW_FWM
in_state
    1
DEAD
  5  3
else
    0    0
  6  3
*BLOCK
  5  3
do
EXCLUDE
    1
OWNER
OWNER
DATAFLOW::DATAFLOW_FWM
insert
    0
DATAFLOW::DATAFLOW
DATAFLOWTOP_FWSETSTATES
insert
    0
DATAFLOW::DATAFLOW
DATAFLOWTOP_FWSETACTIONS
insert
    0
DATAFLOW::DATAFLOW_FWCNM
FWCHILDRENMODE_FWSETSTATES
*BLOCK
  6  3
terminate
INCLUDED
*END_ACTION
*ACTION
&END_IN_STATE_WHEN1
    0    0
*BLOCK
  0  0
terminate
IGNORED
*END_ACTION
*ACTION
&END_IN_STATE_WHEN2
    0    0
*BLOCK
  0  0
terminate
MANUAL
*END_ACTION
*END_STATE
*STATE
MANUAL
    0
*WHEN
 ( DATAFLOW::DATAFLOW_FWM IN_STATE INCLUDED )
    1    0
    1
DATAFLOW::DATAFLOW_FWM
in_state
    1
INCLUDED
do
&END_IN_STATE_WHEN0
    0
&THIS_OBJECT
*ACTION
INCLUDE
    2    0
STRING
OWNER
""
STRING
EXCLUSIVE
"YES"
*BLOCK
  0  0
if
  1
 ( DATAFLOW::DATAFLOW_FWM IN_STATE DEAD )
    1    0
    1
DATAFLOW::DATAFLOW_FWM
in_state
    1
DEAD
  1  1
if
  1
 ( DATAFLOW::DATAFLOW_FWM NOT_IN_STATE INMANUAL )
    1    0
    1
DATAFLOW::DATAFLOW_FWM
not_in_state
    1
INMANUAL
  2  1
if
  1
 ( DATAFLOW::DATAFLOW_FWM IN_STATE INCLUDED )
    1    0
    1
DATAFLOW::DATAFLOW_FWM
in_state
    1
INCLUDED
  3  1
terminate
MANUAL
*BLOCK
  1  1
terminate
MANUAL
*BLOCK
  2  1
do
INCLUDE
    2
OWNER
OWNER
EXCLUSIVE
EXCLUSIVE
DATAFLOW::DATAFLOW_FWM
insert
    1
DATAFLOW::DATAFLOW
DATAFLOWTOP_FWSETSTATES
insert
    1
DATAFLOW::DATAFLOW
DATAFLOWTOP_FWSETACTIONS
insert
    1
DATAFLOW::DATAFLOW_FWCNM
FWCHILDRENMODE_FWSETSTATES
*BLOCK
  3  1
terminate
INCLUDED
*END_ACTION
*ACTION
EXCLUDE
    1    0
STRING
OWNER
""
*BLOCK
  0  0
do
EXCLUDE
    1
OWNER
OWNER
DATAFLOW::DATAFLOW_FWM
insert
    0
DATAFLOW::DATAFLOW
DATAFLOWTOP_FWSETSTATES
insert
    0
DATAFLOW::DATAFLOW
DATAFLOWTOP_FWSETACTIONS
insert
    0
DATAFLOW::DATAFLOW_FWCNM
FWCHILDRENMODE_FWSETSTATES
if
  1
 ( DATAFLOW::DATAFLOW_FWM IN_STATE INMANUAL )
    1    0
    1
DATAFLOW::DATAFLOW_FWM
in_state
    1
INMANUAL
  1  1
terminate
EXCLUDED
*BLOCK
  1  1
do
SETINLOCAL
    0
DATAFLOW::DATAFLOW_FWM
*END_ACTION
*ACTION
IGNORE
    0    0
*BLOCK
  0  0
do
IGNORE
    0
DATAFLOW::DATAFLOW_FWM
insert
    1
DATAFLOW::DATAFLOW
DATAFLOWTOP_FWSETACTIONS
insert
    0
DATAFLOW::DATAFLOW
DATAFLOWTOP_FWSETSTATES
terminate
IGNORED
*END_ACTION
*ACTION
FREE
    1    0
STRING
OWNER
""
*BLOCK
  0  0
do
FREE
    1
OWNER
OWNER
DATAFLOW::DATAFLOW_FWM
if
  1
 ( DATAFLOW::DATAFLOW_FWM IN_STATE INMANUAL )
    1    0
    1
DATAFLOW::DATAFLOW_FWM
in_state
    1
INMANUAL
  1  1
terminate
EXCLUDED
*BLOCK
  1  1
do
SETINLOCAL
    0
DATAFLOW::DATAFLOW_FWM
*END_ACTION
*ACTION
EXCLUDEALL
    1    0
STRING
OWNER
""
*BLOCK
  0  0
do
EXCLUDEALL
    1
OWNER
OWNER
DATAFLOW::DATAFLOW_FWM
insert
    0
DATAFLOW::DATAFLOW
DATAFLOWTOP_FWSETSTATES
insert
    0
DATAFLOW::DATAFLOW
DATAFLOWTOP_FWSETACTIONS
insert
    0
DATAFLOW::DATAFLOW_FWCNM
FWCHILDRENMODE_FWSETSTATES
if
  1
 ( DATAFLOW::DATAFLOW_FWM IN_STATE INMANUAL )
    1    0
    1
DATAFLOW::DATAFLOW_FWM
in_state
    1
INMANUAL
  1  1
terminate
EXCLUDED
*BLOCK
  1  1
do
SETINLOCAL
    0
DATAFLOW::DATAFLOW_FWM
*END_ACTION
*ACTION
MANUAL
    0    0
*BLOCK
  0  0
do
MANUAL
    0
DATAFLOW::DATAFLOW_FWM
insert
    1
DATAFLOW::DATAFLOW
DATAFLOWTOP_FWSETSTATES
insert
    0
DATAFLOW::DATAFLOW
DATAFLOWTOP_FWSETACTIONS
terminate
MANUAL
*END_ACTION
*ACTION
EXCLUDE&LOCKOUT
    1    0
STRING
OWNER
""
*BLOCK
  0  0
do
EXCLUDE
    1
OWNER
OWNER
DATAFLOW::DATAFLOW_FWM
insert
    0
DATAFLOW::DATAFLOW
DATAFLOWTOP_FWSETSTATES
insert
    0
DATAFLOW::DATAFLOW
DATAFLOWTOP_FWSETACTIONS
insert
    0
DATAFLOW::DATAFLOW_FWCNM
FWCHILDRENMODE_FWSETSTATES
if
  1
 ( DATAFLOW::DATAFLOW_FWM IN_STATE INMANUAL )
    1    0
    1
DATAFLOW::DATAFLOW_FWM
in_state
    1
INMANUAL
  1  1
terminate
LOCKEDOUT
*BLOCK
  1  1
do
SETINLOCAL
    0
DATAFLOW::DATAFLOW_FWM
*END_ACTION
*ACTION
&END_IN_STATE_WHEN0
    0    0
*BLOCK
  0  0
terminate
EXCLUDED
*END_ACTION
*END_STATE
*STATE
IGNORED
    0
*WHEN
 ( DATAFLOW::DATAFLOW_FWM IN_STATE INCLUDED )
    1    0
    1
DATAFLOW::DATAFLOW_FWM
in_state
    1
INCLUDED
do
&END_IN_STATE_WHEN0
    0
&THIS_OBJECT
*WHEN
 ( DATAFLOW::DATAFLOW_FWM IN_STATE EXCLUDED )
    1    0
    1
DATAFLOW::DATAFLOW_FWM
in_state
    1
EXCLUDED
do
&END_IN_STATE_WHEN1
    0
&THIS_OBJECT
*WHEN
 ( DATAFLOW::DATAFLOW_FWM IN_STATE DEAD )
    1    0
    1
DATAFLOW::DATAFLOW_FWM
in_state
    1
DEAD
do
EXCLUDE
    0
&THIS_OBJECT
*ACTION
INCLUDE
    2    0
STRING
OWNER
""
STRING
EXCLUSIVE
"YES"
*BLOCK
  0  0
do
INCLUDE
    2
OWNER
OWNER
EXCLUSIVE
EXCLUSIVE
DATAFLOW::DATAFLOW_FWM
insert
    1
DATAFLOW::DATAFLOW
DATAFLOWTOP_FWSETSTATES
insert
    1
DATAFLOW::DATAFLOW
DATAFLOWTOP_FWSETACTIONS
insert
    1
DATAFLOW::DATAFLOW_FWCNM
FWCHILDRENMODE_FWSETSTATES
terminate
INCLUDED
*END_ACTION
*ACTION
EXCLUDE
    1    0
STRING
OWNER
""
*BLOCK
  0  0
if
  2
 ( DATAFLOW::DATAFLOW_FWM NOT_IN_STATE INCLUDED )
    1    0
    1
DATAFLOW::DATAFLOW_FWM
not_in_state
    1
INCLUDED
  1  1
else
    0    0
  2  1
terminate
EXCLUDED
*BLOCK
  1  1
if
  2
 ( DATAFLOW::DATAFLOW_FWM IN_STATE INMANUAL )
    1    0
    1
DATAFLOW::DATAFLOW_FWM
in_state
    1
INMANUAL
  3  2
else
    0    0
  4  2
*BLOCK
  2  1
do
EXCLUDE
    1
OWNER
OWNER
DATAFLOW::DATAFLOW_FWM
insert
    0
DATAFLOW::DATAFLOW
DATAFLOWTOP_FWSETSTATES
insert
    0
DATAFLOW::DATAFLOW
DATAFLOWTOP_FWSETACTIONS
insert
    0
DATAFLOW::DATAFLOW_FWCNM
FWCHILDRENMODE_FWSETSTATES
*BLOCK
  3  2
do
RELEASE
    1
OWNER
OWNER
DATAFLOW::DATAFLOW_FWM
insert
    0
DATAFLOW::DATAFLOW
DATAFLOWTOP_FWSETSTATES
insert
    0
DATAFLOW::DATAFLOW
DATAFLOWTOP_FWSETACTIONS
insert
    0
DATAFLOW::DATAFLOW_FWCNM
FWCHILDRENMODE_FWSETSTATES
*BLOCK
  4  2
do
EXCLUDE
    1
OWNER
OWNER
DATAFLOW::DATAFLOW_FWM
insert
    0
DATAFLOW::DATAFLOW
DATAFLOWTOP_FWSETSTATES
insert
    0
DATAFLOW::DATAFLOW
DATAFLOWTOP_FWSETACTIONS
insert
    0
DATAFLOW::DATAFLOW_FWCNM
FWCHILDRENMODE_FWSETSTATES
*END_ACTION
*ACTION
MANUAL
    1    0
STRING
OWNER
""
*BLOCK
  0  0
do
MANUAL
    1
OWNER
OWNER
DATAFLOW::DATAFLOW_FWM
insert
    1
DATAFLOW::DATAFLOW